<?xml version="1.0" encoding="UTF-8"?>

<!-- generated on 2026-04-13 07:55:33 by Eclipse SUMO netconvert Version 1.19.0
<configuration xmlns:xsi="http://www.w3.org/2001/XMLSchema-instance" xsi:noNamespaceSchemaLocation="http://sumo.dlr.de/xsd/netconvertConfiguration.xsd">

    <input>
        <node-files value="network/map.nod.xml"/>
        <edge-files value="network/map.edg.xml"/>
    </input>

    <output>
        <output-file value="network/map.net.xml"/>
        <output.street-names value="true"/>
    </output>

    <building_defaults>
        <default.junctions.keep-clear value="true"/>
    </building_defaults>

</configuration>
-->

<net version="1.16" junctionCornerDetail="5" limitTurnSpeed="5.50" xmlns:xsi="http://www.w3.org/2001/XMLSchema-instance" xsi:noNamespaceSchemaLocation="http://sumo.dlr.de/xsd/net_file.xsd">

    <location netOffset="0.00,0.00" convBoundary="0.00,0.00,400.00,400.00" origBoundary="0.00,0.00,400.00,400.00" projParameter="!"/>

    <edge id=":J1_0" function="internal">
        <lane id=":J1_0_0" index="0" speed="8.96" length="18.06" shape="6.40,404.80 1.50,404.10 -2.00,402.00 -4.10,398.50 -4.80,393.60"/>
        <lane id=":J1_0_1" index="1" speed="7.66" length="12.90" shape="6.40,401.60 2.90,401.10 0.40,399.60 -1.10,397.10 -1.60,393.60"/>
    </edge>
    <edge id=":J1_2" function="internal">
        <lane id=":J1_2_0" index="0" speed="3.90" length="2.58" shape="4.80,393.60 4.90,394.30 5.20,394.80 5.70,395.10 6.40,395.20"/>
        <lane id=":J1_2_1" index="1" speed="6.08" length="7.74" shape="1.60,393.60 1.90,395.70 2.80,397.20 4.30,398.10 6.40,398.40"/>
    </edge>
    <edge id=":J10_0" function="internal">
        <lane id=":J10_0_0" index="0" speed="13.89" length="0.10" shape="300.00,204.80 300.00,204.80"/>
        <lane id=":J10_0_1" index="1" speed="13.89" length="0.10" shape="300.00,201.60 300.00,201.60"/>
    </edge>
    <edge id=":J10_2" function="internal">
        <lane id=":J10_2_0" index="0" speed="13.89" length="0.10" shape="300.00,195.20 300.00,195.20"/>
        <lane id=":J10_2_1" index="1" speed="13.89" length="0.10" shape="300.00,198.40 300.00,198.40"/>
    </edge>
    <edge id=":J11_0" function="internal">
        <lane id=":J11_0_0" index="0" speed="6.51" length="9.03" shape="395.20,210.40 394.85,207.95 393.80,206.20 392.05,205.15 389.60,204.80"/>
    </edge>
    <edge id=":J11_1" function="internal">
        <lane id=":J11_1_0" index="0" speed="13.89" length="20.80" shape="395.20,210.40 395.20,189.60"/>
        <lane id=":J11_1_1" index="1" speed="13.89" length="20.80" shape="398.40,210.40 398.40,189.60"/>
    </edge>
    <edge id=":J11_3" function="internal">
        <lane id=":J11_3_0" index="0" speed="3.65" length="1.44" shape="398.40,210.40 399.20,209.20"/>
    </edge>
    <edge id=":J11_12" function="internal">
        <lane id=":J11_12_0" index="0" speed="3.65" length="3.23" shape="399.20,209.20 400.00,208.80 400.80,209.20 401.60,210.40"/>
    </edge>
    <edge id=":J11_4" function="internal">
        <lane id=":J11_4_0" index="0" speed="13.89" length="20.80" shape="404.80,189.60 404.80,210.40"/>
        <lane id=":J11_4_1" index="1" speed="13.89" length="20.80" shape="401.60,189.60 401.60,210.40"/>
    </edge>
    <edge id=":J11_6" function="internal">
        <lane id=":J11_6_0" index="0" speed="9.26" length="5.01" shape="401.60,189.60 400.89,194.56"/>
    </edge>
    <edge id=":J11_7" function="internal">
        <lane id=":J11_7_0" index="0" speed="3.65" length="1.44" shape="401.60,189.60 400.80,190.80"/>
    </edge>
    <edge id=":J11_13" function="internal">
        <lane id=":J11_13_0" index="0" speed="9.26" length="14.34" shape="400.89,194.56 400.85,194.85 398.60,198.60 394.85,200.85 389.60,201.60"/>
    </edge>
    <edge id=":J11_14" function="internal">
        <lane id=":J11_14_0" index="0" speed="3.65" length="3.23" shape="400.80,190.80 400.00,191.20 399.20,190.80 398.40,189.60"/>
    </edge>
    <edge id=":J11_8" function="internal">
        <lane id=":J11_8_0" index="0" speed="6.51" length="9.03" shape="389.60,195.20 392.05,194.85 393.80,193.80 394.85,192.05 395.20,189.60"/>
        <lane id=":J11_8_1" index="1" speed="8.00" length="14.19" shape="389.60,198.40 393.45,197.85 396.20,196.20 397.85,193.45 398.40,189.60"/>
    </edge>
    <edge id=":J11_10" function="internal">
        <lane id=":J11_10_0" index="0" speed="9.26" length="19.35" shape="389.60,198.40 394.85,199.15 398.60,201.40 400.85,205.15 401.60,210.40"/>
    </edge>
    <edge id=":J11_11" function="internal">
        <lane id=":J11_11_0" index="0" speed="3.65" length="2.34" shape="389.60,198.40 390.80,199.20 391.20,200.00"/>
    </edge>
    <edge id=":J11_15" function="internal">
        <lane id=":J11_15_0" index="0" speed="3.65" length="2.34" shape="391.20,200.00 390.80,200.80 389.60,201.60"/>
    </edge>
    <edge id=":J12_0" function="internal">
        <lane id=":J12_0_0" index="0" speed="13.89" length="20.80" shape="95.20,110.40 95.20,89.60"/>
        <lane id=":J12_0_1" index="1" speed="13.89" length="20.80" shape="98.40,110.40 98.40,89.60"/>
    </edge>
    <edge id=":J12_2" function="internal">
        <lane id=":J12_2_0" index="0" speed="9.26" length="5.01" shape="98.40,110.40 99.11,105.44"/>
    </edge>
    <edge id=":J12_3" function="internal">
        <lane id=":J12_3_0" index="0" speed="3.65" length="1.44" shape="98.40,110.40 99.20,109.20"/>
    </edge>
    <edge id=":J12_12" function="internal">
        <lane id=":J12_12_0" index="0" speed="9.26" length="14.34" shape="99.11,105.44 99.15,105.15 101.40,101.40 105.15,99.15 110.40,98.40"/>
    </edge>
    <edge id=":J12_13" function="internal">
        <lane id=":J12_13_0" index="0" speed="3.65" length="3.23" shape="99.20,109.20 100.00,108.80 100.80,109.20 101.60,110.40"/>
    </edge>
    <edge id=":J12_4" function="internal">
        <lane id=":J12_4_0" index="0" speed="6.51" length="9.03" shape="110.40,104.80 107.95,105.15 106.20,106.20 105.15,107.95 104.80,110.40"/>
        <lane id=":J12_4_1" index="1" speed="8.00" length="14.19" shape="110.40,101.60 106.55,102.15 103.80,103.80 102.15,106.55 101.60,110.40"/>
    </edge>
    <edge id=":J12_6" function="internal">
        <lane id=":J12_6_0" index="0" speed="9.26" length="19.35" shape="110.40,101.60 105.15,100.85 101.40,98.60 99.15,94.85 98.40,89.60"/>
    </edge>
    <edge id=":J12_7" function="internal">
        <lane id=":J12_7_0" index="0" speed="3.65" length="2.34" shape="110.40,101.60 109.20,100.80 108.80,100.00"/>
    </edge>
    <edge id=":J12_14" function="internal">
        <lane id=":J12_14_0" index="0" speed="3.65" length="2.34" shape="108.80,100.00 109.20,99.20 110.40,98.40"/>
    </edge>
    <edge id=":J12_8" function="internal">
        <lane id=":J12_8_0" index="0" speed="6.51" length="9.03" shape="104.80,89.60 105.15,92.05 106.20,93.80 107.95,94.85 110.40,95.20"/>
    </edge>
    <edge id=":J12_9" function="internal">
        <lane id=":J12_9_0" index="0" speed="13.89" length="20.80" shape="104.80,89.60 104.80,110.40"/>
        <lane id=":J12_9_1" index="1" speed="13.89" length="20.80" shape="101.60,89.60 101.60,110.40"/>
    </edge>
    <edge id=":J12_11" function="internal">
        <lane id=":J12_11_0" index="0" speed="3.65" length="1.44" shape="101.60,89.60 100.80,90.80"/>
    </edge>
    <edge id=":J12_15" function="internal">
        <lane id=":J12_15_0" index="0" speed="3.65" length="3.23" shape="100.80,90.80 100.00,91.20 99.20,90.80 98.40,89.60"/>
    </edge>
    <edge id=":J13_0" function="internal">
        <lane id=":J13_0_0" index="0" speed="6.51" length="9.03" shape="195.20,110.40 194.85,107.95 193.80,106.20 192.05,105.15 189.60,104.80"/>
    </edge>
    <edge id=":J13_1" function="internal">
        <lane id=":J13_1_0" index="0" speed="13.89" length="20.80" shape="195.20,110.40 195.20,89.60"/>
        <lane id=":J13_1_1" index="1" speed="13.89" length="20.80" shape="198.40,110.40 198.40,89.60"/>
    </edge>
    <edge id=":J13_3" function="internal">
        <lane id=":J13_3_0" index="0" speed="3.65" length="1.44" shape="198.40,110.40 199.20,109.20"/>
    </edge>
    <edge id=":J13_12" function="internal">
        <lane id=":J13_12_0" index="0" speed="3.65" length="3.23" shape="199.20,109.20 200.00,108.80 200.80,109.20 201.60,110.40"/>
    </edge>
    <edge id=":J13_4" function="internal">
        <lane id=":J13_4_0" index="0" speed="13.89" length="20.80" shape="204.80,89.60 204.80,110.40"/>
        <lane id=":J13_4_1" index="1" speed="13.89" length="20.80" shape="201.60,89.60 201.60,110.40"/>
    </edge>
    <edge id=":J13_6" function="internal">
        <lane id=":J13_6_0" index="0" speed="9.26" length="5.01" shape="201.60,89.60 200.89,94.56"/>
    </edge>
    <edge id=":J13_7" function="internal">
        <lane id=":J13_7_0" index="0" speed="3.65" length="1.44" shape="201.60,89.60 200.80,90.80"/>
    </edge>
    <edge id=":J13_13" function="internal">
        <lane id=":J13_13_0" index="0" speed="9.26" length="14.34" shape="200.89,94.56 200.85,94.85 198.60,98.60 194.85,100.85 189.60,101.60"/>
    </edge>
    <edge id=":J13_14" function="internal">
        <lane id=":J13_14_0" index="0" speed="3.65" length="3.23" shape="200.80,90.80 200.00,91.20 199.20,90.80 198.40,89.60"/>
    </edge>
    <edge id=":J13_8" function="internal">
        <lane id=":J13_8_0" index="0" speed="6.51" length="9.03" shape="189.60,95.20 192.05,94.85 193.80,93.80 194.85,92.05 195.20,89.60"/>
        <lane id=":J13_8_1" index="1" speed="8.00" length="14.19" shape="189.60,98.40 193.45,97.85 196.20,96.20 197.85,93.45 198.40,89.60"/>
    </edge>
    <edge id=":J13_10" function="internal">
        <lane id=":J13_10_0" index="0" speed="9.26" length="19.35" shape="189.60,98.40 194.85,99.15 198.60,101.40 200.85,105.15 201.60,110.40"/>
    </edge>
    <edge id=":J13_11" function="internal">
        <lane id=":J13_11_0" index="0" speed="3.65" length="2.34" shape="189.60,98.40 190.80,99.20 191.20,100.00"/>
    </edge>
    <edge id=":J13_15" function="internal">
        <lane id=":J13_15_0" index="0" speed="3.65" length="2.34" shape="191.20,100.00 190.80,100.80 189.60,101.60"/>
    </edge>
    <edge id=":J14_0" function="internal">
        <lane id=":J14_0_0" index="0" speed="8.96" length="18.06" shape="-4.80,6.40 -4.10,1.50 -2.00,-2.00 1.50,-4.10 6.40,-4.80"/>
        <lane id=":J14_0_1" index="1" speed="7.66" length="12.90" shape="-1.60,6.40 -1.10,2.90 0.40,0.40 2.90,-1.10 6.40,-1.60"/>
    </edge>
    <edge id=":J14_2" function="internal">
        <lane id=":J14_2_0" index="0" speed="3.90" length="2.58" shape="6.40,4.80 5.70,4.90 5.20,5.20 4.90,5.70 4.80,6.40"/>
        <lane id=":J14_2_1" index="1" speed="6.08" length="7.74" shape="6.40,1.60 4.30,1.90 2.80,2.80 1.90,4.30 1.60,6.40"/>
    </edge>
    <edge id=":J15_0" function="internal">
        <lane id=":J15_0_0" index="0" speed="6.51" length="9.03" shape="95.20,10.40 94.85,7.95 93.80,6.20 92.05,5.15 89.60,4.80"/>
        <lane id=":J15_0_1" index="1" speed="8.00" length="14.19" shape="98.40,10.40 97.85,6.55 96.20,3.80 93.45,2.15 89.60,1.60"/>
    </edge>
    <edge id=":J15_2" function="internal">
        <lane id=":J15_2_0" index="0" speed="9.26" length="19.35" shape="98.40,10.40 99.15,5.15 101.40,1.40 105.15,-0.85 110.40,-1.60"/>
    </edge>
    <edge id=":J15_3" function="internal">
        <lane id=":J15_3_0" index="0" speed="3.65" length="2.34" shape="98.40,10.40 99.20,9.20 100.00,8.80"/>
    </edge>
    <edge id=":J15_12" function="internal">
        <lane id=":J15_12_0" index="0" speed="3.65" length="2.34" shape="100.00,8.80 100.80,9.20 101.60,10.40"/>
    </edge>
    <edge id=":J15_4" function="internal">
        <lane id=":J15_4_0" index="0" speed="6.51" length="9.03" shape="110.40,4.80 107.95,5.15 106.20,6.20 105.15,7.95 104.80,10.40"/>
    </edge>
    <edge id=":J15_5" function="internal">
        <lane id=":J15_5_0" index="0" speed="13.89" length="20.80" shape="110.40,4.80 89.60,4.80"/>
        <lane id=":J15_5_1" index="1" speed="13.89" length="20.80" shape="110.40,1.60 89.60,1.60"/>
    </edge>
    <edge id=":J15_7" function="internal">
        <lane id=":J15_7_0" index="0" speed="3.65" length="1.44" shape="110.40,1.60 109.20,0.80"/>
    </edge>
    <edge id=":J15_13" function="internal">
        <lane id=":J15_13_0" index="0" speed="3.65" length="3.23" shape="109.20,0.80 108.80,0.00 109.20,-0.80 110.40,-1.60"/>
    </edge>
    <edge id=":J15_8" function="internal">
        <lane id=":J15_8_0" index="0" speed="13.89" length="20.80" shape="89.60,-4.80 110.40,-4.80"/>
        <lane id=":J15_8_1" index="1" speed="13.89" length="20.80" shape="89.60,-1.60 110.40,-1.60"/>
    </edge>
    <edge id=":J15_10" function="internal">
        <lane id=":J15_10_0" index="0" speed="9.26" length="5.01" shape="89.60,-1.60 94.56,-0.89"/>
    </edge>
    <edge id=":J15_11" function="internal">
        <lane id=":J15_11_0" index="0" speed="3.65" length="1.44" shape="89.60,-1.60 90.80,-0.80"/>
    </edge>
    <edge id=":J15_14" function="internal">
        <lane id=":J15_14_0" index="0" speed="9.26" length="14.34" shape="94.56,-0.89 94.85,-0.85 98.60,1.40 100.85,5.15 101.60,10.40"/>
    </edge>
    <edge id=":J15_15" function="internal">
        <lane id=":J15_15_0" index="0" speed="3.65" length="3.23" shape="90.80,-0.80 91.20,0.00 90.80,0.80 89.60,1.60"/>
    </edge>
    <edge id=":J16_0" function="internal">
        <lane id=":J16_0_0" index="0" speed="6.51" length="9.03" shape="195.20,10.40 194.85,7.95 193.80,6.20 192.05,5.15 189.60,4.80"/>
        <lane id=":J16_0_1" index="1" speed="8.00" length="14.19" shape="198.40,10.40 197.85,6.55 196.20,3.80 193.45,2.15 189.60,1.60"/>
    </edge>
    <edge id=":J16_2" function="internal">
        <lane id=":J16_2_0" index="0" speed="9.26" length="19.35" shape="198.40,10.40 199.15,5.15 201.40,1.40 205.15,-0.85 210.40,-1.60"/>
    </edge>
    <edge id=":J16_3" function="internal">
        <lane id=":J16_3_0" index="0" speed="3.65" length="2.34" shape="198.40,10.40 199.20,9.20 200.00,8.80"/>
    </edge>
    <edge id=":J16_12" function="internal">
        <lane id=":J16_12_0" index="0" speed="3.65" length="2.34" shape="200.00,8.80 200.80,9.20 201.60,10.40"/>
    </edge>
    <edge id=":J16_4" function="internal">
        <lane id=":J16_4_0" index="0" speed="6.51" length="9.03" shape="210.40,4.80 207.95,5.15 206.20,6.20 205.15,7.95 204.80,10.40"/>
    </edge>
    <edge id=":J16_5" function="internal">
        <lane id=":J16_5_0" index="0" speed="13.89" length="20.80" shape="210.40,4.80 189.60,4.80"/>
        <lane id=":J16_5_1" index="1" speed="13.89" length="20.80" shape="210.40,1.60 189.60,1.60"/>
    </edge>
    <edge id=":J16_7" function="internal">
        <lane id=":J16_7_0" index="0" speed="3.65" length="1.44" shape="210.40,1.60 209.20,0.80"/>
    </edge>
    <edge id=":J16_13" function="internal">
        <lane id=":J16_13_0" index="0" speed="3.65" length="3.23" shape="209.20,0.80 208.80,0.00 209.20,-0.80 210.40,-1.60"/>
    </edge>
    <edge id=":J16_8" function="internal">
        <lane id=":J16_8_0" index="0" speed="13.89" length="20.80" shape="189.60,-4.80 210.40,-4.80"/>
        <lane id=":J16_8_1" index="1" speed="13.89" length="20.80" shape="189.60,-1.60 210.40,-1.60"/>
    </edge>
    <edge id=":J16_10" function="internal">
        <lane id=":J16_10_0" index="0" speed="9.26" length="5.01" shape="189.60,-1.60 194.56,-0.89"/>
    </edge>
    <edge id=":J16_11" function="internal">
        <lane id=":J16_11_0" index="0" speed="3.65" length="1.44" shape="189.60,-1.60 190.80,-0.80"/>
    </edge>
    <edge id=":J16_14" function="internal">
        <lane id=":J16_14_0" index="0" speed="9.26" length="14.34" shape="194.56,-0.89 194.85,-0.85 198.60,1.40 200.85,5.15 201.60,10.40"/>
    </edge>
    <edge id=":J16_15" function="internal">
        <lane id=":J16_15_0" index="0" speed="3.65" length="3.23" shape="190.80,-0.80 191.20,0.00 190.80,0.80 189.60,1.60"/>
    </edge>
    <edge id=":J17_0" function="internal">
        <lane id=":J17_0_0" index="0" speed="3.90" length="2.58" shape="395.20,6.40 395.10,5.70 394.80,5.20 394.30,4.90 393.60,4.80"/>
        <lane id=":J17_0_1" index="1" speed="6.08" length="7.74" shape="398.40,6.40 398.10,4.30 397.20,2.80 395.70,1.90 393.60,1.60"/>
    </edge>
    <edge id=":J17_2" function="internal">
        <lane id=":J17_2_0" index="0" speed="8.96" length="18.06" shape="393.60,-4.80 398.50,-4.10 402.00,-2.00 404.10,1.50 404.80,6.40"/>
        <lane id=":J17_2_1" index="1" speed="7.66" length="12.90" shape="393.60,-1.60 397.10,-1.10 399.60,0.40 401.10,2.90 401.60,6.40"/>
    </edge>
    <edge id=":J2_0" function="internal">
        <lane id=":J2_0_0" index="0" speed="13.89" length="20.80" shape="110.40,404.80 89.60,404.80"/>
        <lane id=":J2_0_1" index="1" speed="13.89" length="20.80" shape="110.40,401.60 89.60,401.60"/>
    </edge>
    <edge id=":J2_2" function="internal">
        <lane id=":J2_2_0" index="0" speed="9.26" length="5.01" shape="110.40,401.60 105.44,400.89"/>
    </edge>
    <edge id=":J2_3" function="internal">
        <lane id=":J2_3_0" index="0" speed="3.65" length="1.44" shape="110.40,401.60 109.20,400.80"/>
    </edge>
    <edge id=":J2_12" function="internal">
        <lane id=":J2_12_0" index="0" speed="9.26" length="14.34" shape="105.44,400.89 105.15,400.85 101.40,398.60 99.15,394.85 98.40,389.60"/>
    </edge>
    <edge id=":J2_13" function="internal">
        <lane id=":J2_13_0" index="0" speed="3.65" length="3.23" shape="109.20,400.80 108.80,400.00 109.20,399.20 110.40,398.40"/>
    </edge>
    <edge id=":J2_4" function="internal">
        <lane id=":J2_4_0" index="0" speed="6.51" length="9.03" shape="104.80,389.60 105.15,392.05 106.20,393.80 107.95,394.85 110.40,395.20"/>
        <lane id=":J2_4_1" index="1" speed="8.00" length="14.19" shape="101.60,389.60 102.15,393.45 103.80,396.20 106.55,397.85 110.40,398.40"/>
    </edge>
    <edge id=":J2_6" function="internal">
        <lane id=":J2_6_0" index="0" speed="9.26" length="19.35" shape="101.60,389.60 100.85,394.85 98.60,398.60 94.85,400.85 89.60,401.60"/>
    </edge>
    <edge id=":J2_7" function="internal">
        <lane id=":J2_7_0" index="0" speed="3.65" length="2.34" shape="101.60,389.60 100.80,390.80 100.00,391.20"/>
    </edge>
    <edge id=":J2_14" function="internal">
        <lane id=":J2_14_0" index="0" speed="3.65" length="2.34" shape="100.00,391.20 99.20,390.80 98.40,389.60"/>
    </edge>
    <edge id=":J2_8" function="internal">
        <lane id=":J2_8_0" index="0" speed="6.51" length="9.03" shape="89.60,395.20 92.05,394.85 93.80,393.80 94.85,392.05 95.20,389.60"/>
    </edge>
    <edge id=":J2_9" function="internal">
        <lane id=":J2_9_0" index="0" speed="13.89" length="20.80" shape="89.60,395.20 110.40,395.20"/>
        <lane id=":J2_9_1" index="1" speed="13.89" length="20.80" shape="89.60,398.40 110.40,398.40"/>
    </edge>
    <edge id=":J2_11" function="internal">
        <lane id=":J2_11_0" index="0" speed="3.65" length="1.44" shape="89.60,398.40 90.80,399.20"/>
    </edge>
    <edge id=":J2_15" function="internal">
        <lane id=":J2_15_0" index="0" speed="3.65" length="3.23" shape="90.80,399.20 91.20,400.00 90.80,400.80 89.60,401.60"/>
    </edge>
    <edge id=":J3_0" function="internal">
        <lane id=":J3_0_0" index="0" speed="13.89" length="20.80" shape="210.40,404.80 189.60,404.80"/>
        <lane id=":J3_0_1" index="1" speed="13.89" length="20.80" shape="210.40,401.60 189.60,401.60"/>
    </edge>
    <edge id=":J3_2" function="internal">
        <lane id=":J3_2_0" index="0" speed="9.26" length="5.01" shape="210.40,401.60 205.44,400.89"/>
    </edge>
    <edge id=":J3_3" function="internal">
        <lane id=":J3_3_0" index="0" speed="3.65" length="1.44" shape="210.40,401.60 209.20,400.80"/>
    </edge>
    <edge id=":J3_12" function="internal">
        <lane id=":J3_12_0" index="0" speed="9.26" length="14.34" shape="205.44,400.89 205.15,400.85 201.40,398.60 199.15,394.85 198.40,389.60"/>
    </edge>
    <edge id=":J3_13" function="internal">
        <lane id=":J3_13_0" index="0" speed="3.65" length="3.23" shape="209.20,400.80 208.80,400.00 209.20,399.20 210.40,398.40"/>
    </edge>
    <edge id=":J3_4" function="internal">
        <lane id=":J3_4_0" index="0" speed="6.51" length="9.03" shape="204.80,389.60 205.15,392.05 206.20,393.80 207.95,394.85 210.40,395.20"/>
        <lane id=":J3_4_1" index="1" speed="8.00" length="14.19" shape="201.60,389.60 202.15,393.45 203.80,396.20 206.55,397.85 210.40,398.40"/>
    </edge>
    <edge id=":J3_6" function="internal">
        <lane id=":J3_6_0" index="0" speed="9.26" length="19.35" shape="201.60,389.60 200.85,394.85 198.60,398.60 194.85,400.85 189.60,401.60"/>
    </edge>
    <edge id=":J3_7" function="internal">
        <lane id=":J3_7_0" index="0" speed="3.65" length="2.34" shape="201.60,389.60 200.80,390.80 200.00,391.20"/>
    </edge>
    <edge id=":J3_14" function="internal">
        <lane id=":J3_14_0" index="0" speed="3.65" length="2.34" shape="200.00,391.20 199.20,390.80 198.40,389.60"/>
    </edge>
    <edge id=":J3_8" function="internal">
        <lane id=":J3_8_0" index="0" speed="6.51" length="9.03" shape="189.60,395.20 192.05,394.85 193.80,393.80 194.85,392.05 195.20,389.60"/>
    </edge>
    <edge id=":J3_9" function="internal">
        <lane id=":J3_9_0" index="0" speed="13.89" length="20.80" shape="189.60,395.20 210.40,395.20"/>
        <lane id=":J3_9_1" index="1" speed="13.89" length="20.80" shape="189.60,398.40 210.40,398.40"/>
    </edge>
    <edge id=":J3_11" function="internal">
        <lane id=":J3_11_0" index="0" speed="3.65" length="1.44" shape="189.60,398.40 190.80,399.20"/>
    </edge>
    <edge id=":J3_15" function="internal">
        <lane id=":J3_15_0" index="0" speed="3.65" length="3.23" shape="190.80,399.20 191.20,400.00 190.80,400.80 189.60,401.60"/>
    </edge>
    <edge id=":J4_0" function="internal">
        <lane id=":J4_0_0" index="0" speed="8.96" length="18.06" shape="404.80,393.60 404.10,398.50 402.00,402.00 398.50,404.10 393.60,404.80"/>
        <lane id=":J4_0_1" index="1" speed="7.66" length="12.90" shape="401.60,393.60 401.10,397.10 399.60,399.60 397.10,401.10 393.60,401.60"/>
    </edge>
    <edge id=":J4_2" function="internal">
        <lane id=":J4_2_0" index="0" speed="3.90" length="2.58" shape="393.60,395.20 394.30,395.10 394.80,394.80 395.10,394.30 395.20,393.60"/>
        <lane id=":J4_2_1" index="1" speed="6.08" length="7.74" shape="393.60,398.40 395.70,398.10 397.20,397.20 398.10,395.70 398.40,393.60"/>
    </edge>
    <edge id=":J5_0" function="internal">
        <lane id=":J5_0_0" index="0" speed="13.89" length="20.80" shape="95.20,310.40 95.20,289.60"/>
        <lane id=":J5_0_1" index="1" speed="13.89" length="20.80" shape="98.40,310.40 98.40,289.60"/>
    </edge>
    <edge id=":J5_2" function="internal">
        <lane id=":J5_2_0" index="0" speed="9.26" length="5.01" shape="98.40,310.40 99.11,305.44"/>
    </edge>
    <edge id=":J5_3" function="internal">
        <lane id=":J5_3_0" index="0" speed="3.65" length="1.44" shape="98.40,310.40 99.20,309.20"/>
    </edge>
    <edge id=":J5_12" function="internal">
        <lane id=":J5_12_0" index="0" speed="9.26" length="14.34" shape="99.11,305.44 99.15,305.15 101.40,301.40 105.15,299.15 110.40,298.40"/>
    </edge>
    <edge id=":J5_13" function="internal">
        <lane id=":J5_13_0" index="0" speed="3.65" length="3.23" shape="99.20,309.20 100.00,308.80 100.80,309.20 101.60,310.40"/>
    </edge>
    <edge id=":J5_4" function="internal">
        <lane id=":J5_4_0" index="0" speed="6.51" length="9.03" shape="110.40,304.80 107.95,305.15 106.20,306.20 105.15,307.95 104.80,310.40"/>
        <lane id=":J5_4_1" index="1" speed="8.00" length="14.19" shape="110.40,301.60 106.55,302.15 103.80,303.80 102.15,306.55 101.60,310.40"/>
    </edge>
    <edge id=":J5_6" function="internal">
        <lane id=":J5_6_0" index="0" speed="9.26" length="19.35" shape="110.40,301.60 105.15,300.85 101.40,298.60 99.15,294.85 98.40,289.60"/>
    </edge>
    <edge id=":J5_7" function="internal">
        <lane id=":J5_7_0" index="0" speed="3.65" length="2.34" shape="110.40,301.60 109.20,300.80 108.80,300.00"/>
    </edge>
    <edge id=":J5_14" function="internal">
        <lane id=":J5_14_0" index="0" speed="3.65" length="2.34" shape="108.80,300.00 109.20,299.20 110.40,298.40"/>
    </edge>
    <edge id=":J5_8" function="internal">
        <lane id=":J5_8_0" index="0" speed="6.51" length="9.03" shape="104.80,289.60 105.15,292.05 106.20,293.80 107.95,294.85 110.40,295.20"/>
    </edge>
    <edge id=":J5_9" function="internal">
        <lane id=":J5_9_0" index="0" speed="13.89" length="20.80" shape="104.80,289.60 104.80,310.40"/>
        <lane id=":J5_9_1" index="1" speed="13.89" length="20.80" shape="101.60,289.60 101.60,310.40"/>
    </edge>
    <edge id=":J5_11" function="internal">
        <lane id=":J5_11_0" index="0" speed="3.65" length="1.44" shape="101.60,289.60 100.80,290.80"/>
    </edge>
    <edge id=":J5_15" function="internal">
        <lane id=":J5_15_0" index="0" speed="3.65" length="3.23" shape="100.80,290.80 100.00,291.20 99.20,290.80 98.40,289.60"/>
    </edge>
    <edge id=":J6_0" function="internal">
        <lane id=":J6_0_0" index="0" speed="6.51" length="9.03" shape="195.20,310.40 194.85,307.95 193.80,306.20 192.05,305.15 189.60,304.80"/>
    </edge>
    <edge id=":J6_1" function="internal">
        <lane id=":J6_1_0" index="0" speed="13.89" length="20.80" shape="195.20,310.40 195.20,289.60"/>
        <lane id=":J6_1_1" index="1" speed="13.89" length="20.80" shape="198.40,310.40 198.40,289.60"/>
    </edge>
    <edge id=":J6_3" function="internal">
        <lane id=":J6_3_0" index="0" speed="3.65" length="1.44" shape="198.40,310.40 199.20,309.20"/>
    </edge>
    <edge id=":J6_12" function="internal">
        <lane id=":J6_12_0" index="0" speed="3.65" length="3.23" shape="199.20,309.20 200.00,308.80 200.80,309.20 201.60,310.40"/>
    </edge>
    <edge id=":J6_4" function="internal">
        <lane id=":J6_4_0" index="0" speed="13.89" length="20.80" shape="204.80,289.60 204.80,310.40"/>
        <lane id=":J6_4_1" index="1" speed="13.89" length="20.80" shape="201.60,289.60 201.60,310.40"/>
    </edge>
    <edge id=":J6_6" function="internal">
        <lane id=":J6_6_0" index="0" speed="9.26" length="5.01" shape="201.60,289.60 200.89,294.56"/>
    </edge>
    <edge id=":J6_7" function="internal">
        <lane id=":J6_7_0" index="0" speed="3.65" length="1.44" shape="201.60,289.60 200.80,290.80"/>
    </edge>
    <edge id=":J6_13" function="internal">
        <lane id=":J6_13_0" index="0" speed="9.26" length="14.34" shape="200.89,294.56 200.85,294.85 198.60,298.60 194.85,300.85 189.60,301.60"/>
    </edge>
    <edge id=":J6_14" function="internal">
        <lane id=":J6_14_0" index="0" speed="3.65" length="3.23" shape="200.80,290.80 200.00,291.20 199.20,290.80 198.40,289.60"/>
    </edge>
    <edge id=":J6_8" function="internal">
        <lane id=":J6_8_0" index="0" speed="6.51" length="9.03" shape="189.60,295.20 192.05,294.85 193.80,293.80 194.85,292.05 195.20,289.60"/>
        <lane id=":J6_8_1" index="1" speed="8.00" length="14.19" shape="189.60,298.40 193.45,297.85 196.20,296.20 197.85,293.45 198.40,289.60"/>
    </edge>
    <edge id=":J6_10" function="internal">
        <lane id=":J6_10_0" index="0" speed="9.26" length="19.35" shape="189.60,298.40 194.85,299.15 198.60,301.40 200.85,305.15 201.60,310.40"/>
    </edge>
    <edge id=":J6_11" function="internal">
        <lane id=":J6_11_0" index="0" speed="3.65" length="2.34" shape="189.60,298.40 190.80,299.20 191.20,300.00"/>
    </edge>
    <edge id=":J6_15" function="internal">
        <lane id=":J6_15_0" index="0" speed="3.65" length="2.34" shape="191.20,300.00 190.80,300.80 189.60,301.60"/>
    </edge>
    <edge id=":J7_0" function="internal">
        <lane id=":J7_0_0" index="0" speed="13.89" length="20.80" shape="-4.80,210.40 -4.80,189.60"/>
        <lane id=":J7_0_1" index="1" speed="13.89" length="20.80" shape="-1.60,210.40 -1.60,189.60"/>
    </edge>
    <edge id=":J7_2" function="internal">
        <lane id=":J7_2_0" index="0" speed="9.26" length="5.01" shape="-1.60,210.40 -0.89,205.44"/>
    </edge>
    <edge id=":J7_3" function="internal">
        <lane id=":J7_3_0" index="0" speed="3.65" length="1.44" shape="-1.60,210.40 -0.80,209.20"/>
    </edge>
    <edge id=":J7_12" function="internal">
        <lane id=":J7_12_0" index="0" speed="9.26" length="14.34" shape="-0.89,205.44 -0.85,205.15 1.40,201.40 5.15,199.15 10.40,198.40"/>
    </edge>
    <edge id=":J7_13" function="internal">
        <lane id=":J7_13_0" index="0" speed="3.65" length="3.23" shape="-0.80,209.20 0.00,208.80 0.80,209.20 1.60,210.40"/>
    </edge>
    <edge id=":J7_4" function="internal">
        <lane id=":J7_4_0" index="0" speed="6.51" length="9.03" shape="10.40,204.80 7.95,205.15 6.20,206.20 5.15,207.95 4.80,210.40"/>
        <lane id=":J7_4_1" index="1" speed="8.00" length="14.19" shape="10.40,201.60 6.55,202.15 3.80,203.80 2.15,206.55 1.60,210.40"/>
    </edge>
    <edge id=":J7_6" function="internal">
        <lane id=":J7_6_0" index="0" speed="9.26" length="19.35" shape="10.40,201.60 5.15,200.85 1.40,198.60 -0.85,194.85 -1.60,189.60"/>
    </edge>
    <edge id=":J7_7" function="internal">
        <lane id=":J7_7_0" index="0" speed="3.65" length="2.34" shape="10.40,201.60 9.20,200.80 8.80,200.00"/>
    </edge>
    <edge id=":J7_14" function="internal">
        <lane id=":J7_14_0" index="0" speed="3.65" length="2.34" shape="8.80,200.00 9.20,199.20 10.40,198.40"/>
    </edge>
    <edge id=":J7_8" function="internal">
        <lane id=":J7_8_0" index="0" speed="6.51" length="9.03" shape="4.80,189.60 5.15,192.05 6.20,193.80 7.95,194.85 10.40,195.20"/>
    </edge>
    <edge id=":J7_9" function="internal">
        <lane id=":J7_9_0" index="0" speed="13.89" length="20.80" shape="4.80,189.60 4.80,210.40"/>